/*--------------------------------*- C++ -*----------------------------------*\
| =========                 |                                                 |
| \\      /  F ield         | OpenFOAM: The Open Source CFD Toolbox           |
|  \\    /   O peration     | Version:  v1806                                 |
|   \\  /    A nd           | Web:      www.OpenFOAM.com                      |
|    \\/     M anipulation  |                                                 |
\*---------------------------------------------------------------------------*/
FoamFile
{
    version     2.0;
    format      ascii;
    class       dictionary;
    location    "system";
    object      fvSchemes;
}
// * * * * * * * * * * * * * * * * * * * * * * * * * * * * * * * * * * * * * //

ddtSchemes
{
    default         backward;
}

d2dt2Schemes
{
    default		Euler;
}

gradSchemes
{
    default         leastSquares;
}

divSchemes
{
    default         none;
    div(phi,U)      Gauss linearUpwind grad(U);
    div(phi,omega)  Gauss limitedLinear 1;
    div(phi,k)      Gauss limitedLinear 1;
    div((nuEff*dev2(T(grad(U))))) Gauss linear;

//    div(U)          Gauss linear;
//    div(phi,U)      Gauss limitedLinearV 1;

    div(phi,e)      Gauss limitedLinear 1;
//    div(phid,p)     Gauss limitedLinear 1;

//    div(phi,K)      Gauss limitedLinear 1;    
//    div(phi,k)      Gauss upwind;
//    div(phi,epsilon) Gauss upwind;

//    div(((rho*nuEff)*dev2(T(grad(U))))) Gauss linear;
}

laplacianSchemes
{
    default         Gauss linear corrected;
}

interpolationSchemes
{
    default         linear;
}

snGradSchemes
{
    default         corrected;
}

wallDist
{
    method          meshWave;
}


// ************************************************************************* //
